# CIF file generated by openbabel 2.3.90, see http://openbabel.sf.net
data_I
_chemical_name_common ''
_cell_length_a 11.355
_cell_length_b 11.355
_cell_length_c 28.542
_cell_angle_alpha 90
_cell_angle_beta 90
_cell_angle_gamma 90
loop_
    _atom_site_label
    _atom_site_type_symbol
    _atom_site_fract_x
    _atom_site_fract_y
    _atom_site_fract_z
    _atom_site_occupancy
    Ti      Ti   0.00000   0.00000   0.00000   1.000
    O       O    0.00000   0.00000   0.06887   1.000
    Ti      Ti   0.16667   0.16667   0.16667   1.000
    Ti      Ti   0.33333   0.16667   0.08333   1.000
    Ti      Ti   0.16667   0.00000   0.25000   1.000
    O       O    0.16667   0.16667   0.23553   1.000
    O       O    0.00000   0.16667   0.15220   1.000
    O       O    0.16667   0.00000   0.31887   1.000
    O       O    0.16667   0.00000   0.18113   1.000
    O       O    0.00000   0.16667   0.01447   1.000
    O       O    0.16667   0.16667   0.09780   1.000
    O       O    0.00000   0.00000   0.26447   1.000
    Ti0     Ti   0.00000   0.00000   0.33333   1.000
    O1      O    0.00000   0.00000   0.40220   1.000
    Ti2     Ti   0.16667   0.16667   0.50000   1.000
    Ti3     Ti   0.33333   0.16667   0.41667   1.000
    Ti4     Ti   0.16667   0.00000   0.58333   1.000
    O5      O    0.16667   0.16667   0.56887   1.000
    O6      O    0.00000   0.16667   0.48553   1.000
    O7      O    0.16667   0.00000   0.65220   1.000
    O8      O    0.16667   0.00000   0.51447   1.000
    O9      O    0.00000   0.16667   0.34780   1.000
    O10     O    0.16667   0.16667   0.43113   1.000
    O11     O    0.00000   0.00000   0.59780   1.000
    Ti12    Ti   0.00000   0.00000   0.66667   1.000
    O13     O    0.00000   0.00000   0.73553   1.000
    Ti14    Ti   0.16667   0.16667   0.83333   1.000
    Ti15    Ti   0.33333   0.16667   0.75000   1.000
    Ti16    Ti   0.16667   0.00000   0.91667   1.000
    O17     O    0.16667   0.16667   0.90220   1.000
    O18     O    0.00000   0.16667   0.81887   1.000
    O19     O    0.16667   0.00000   0.98553   1.000
    O20     O    0.16667   0.00000   0.84780   1.000
    O21     O    0.00000   0.16667   0.68113   1.000
    O22     O    0.16667   0.16667   0.76447   1.000
    O23     O    0.00000   0.00000   0.93113   1.000
    Ti24    Ti   0.00000   0.33333   0.00000   1.000
    O25     O    0.00000   0.33333   0.06887   1.000
    Ti26    Ti   0.16667   0.50000   0.16667   1.000
    Ti27    Ti   0.33333   0.50000   0.08333   1.000
    Ti28    Ti   0.16667   0.33333   0.25000   1.000
    O29     O    0.16667   0.50000   0.23553   1.000
    O30     O    0.00000   0.50000   0.15220   1.000
    O31     O    0.16667   0.33333   0.31887   1.000
    O32     O    0.16667   0.33333   0.18113   1.000
    O33     O    0.00000   0.50000   0.01447   1.000
    O34     O    0.16667   0.50000   0.09780   1.000
    O35     O    0.00000   0.33333   0.26447   1.000
    Ti36    Ti   0.00000   0.33333   0.33333   1.000
    O37     O    0.00000   0.33333   0.40220   1.000
    Ti38    Ti   0.16667   0.50000   0.50000   1.000
    Ti39    Ti   0.33333   0.50000   0.41667   1.000
    Ti40    Ti   0.16667   0.33333   0.58333   1.000
    O41     O    0.16667   0.50000   0.56887   1.000
    O42     O    0.00000   0.50000   0.48553   1.000
    O43     O    0.16667   0.33333   0.65220   1.000
    O44     O    0.16667   0.33333   0.51447   1.000
    O45     O    0.00000   0.50000   0.34780   1.000
    O46     O    0.16667   0.50000   0.43113   1.000
    O47     O    0.00000   0.33333   0.59780   1.000
    Ti48    Ti   0.00000   0.33333   0.66667   1.000
    O49     O    0.00000   0.33333   0.73553   1.000
    Ti50    Ti   0.16667   0.50000   0.83333   1.000
    Ti51    Ti   0.33333   0.50000   0.75000   1.000
    Ti52    Ti   0.16667   0.33333   0.91667   1.000
    O53     O    0.16667   0.50000   0.90220   1.000
    O54     O    0.00000   0.50000   0.81887   1.000
    O55     O    0.16667   0.33333   0.98553   1.000
    O56     O    0.16667   0.33333   0.84780   1.000
    O57     O    0.00000   0.50000   0.68113   1.000
    O58     O    0.16667   0.50000   0.76447   1.000
    O59     O    0.00000   0.33333   0.93113   1.000
    Ti60    Ti   0.00000   0.66667   0.00000   1.000
    O61     O    0.00000   0.66667   0.06887   1.000
    Ti62    Ti   0.16667   0.83333   0.16667   1.000
    Ti63    Ti   0.33333   0.83333   0.08333   1.000
    Ti64    Ti   0.16667   0.66667   0.25000   1.000
    O65     O    0.16667   0.83333   0.23553   1.000
    O66     O    0.00000   0.83333   0.15220   1.000
    O67     O    0.16667   0.66667   0.31887   1.000
    O68     O    0.16667   0.66667   0.18113   1.000
    O69     O    0.00000   0.83333   0.01447   1.000
    O70     O    0.16667   0.83333   0.09780   1.000
    O71     O    0.00000   0.66667   0.26447   1.000
    Ti72    Ti   0.00000   0.66667   0.33333   1.000
    O73     O    0.00000   0.66667   0.40220   1.000
    Ti74    Ti   0.16667   0.83333   0.50000   1.000
    Ti75    Ti   0.33333   0.83333   0.41667   1.000
    Ti76    Ti   0.16667   0.66667   0.58333   1.000
    O77     O    0.16667   0.83333   0.56887   1.000
    O78     O    0.00000   0.83333   0.48553   1.000
    O79     O    0.16667   0.66667   0.65220   1.000
    O80     O    0.16667   0.66667   0.51447   1.000
    O81     O    0.00000   0.83333   0.34780   1.000
    O82     O    0.16667   0.83333   0.43113   1.000
    O83     O    0.00000   0.66667   0.59780   1.000
    Ti84    Ti   0.00000   0.66667   0.66667   1.000
    O85     O    0.00000   0.66667   0.73553   1.000
    Ti86    Ti   0.16667   0.83333   0.83333   1.000
    Ti87    Ti   0.33333   0.83333   0.75000   1.000
    Ti88    Ti   0.16667   0.66667   0.91667   1.000
    O89     O    0.16667   0.83333   0.90220   1.000
    O90     O    0.00000   0.83333   0.81887   1.000
    O91     O    0.16667   0.66667   0.98553   1.000
    O92     O    0.16667   0.66667   0.84780   1.000
    O93     O    0.00000   0.83333   0.68113   1.000
    O94     O    0.16667   0.83333   0.76447   1.000
    O95     O    0.00000   0.66667   0.93113   1.000
    Ti96    Ti   0.33333   0.00000   0.00000   1.000
    O97     O    0.33333   0.00000   0.06887   1.000
    Ti98    Ti   0.50000   0.16667   0.16667   1.000
    Ti99    Ti   0.66667   0.16667   0.08333   1.000
    Ti100   Ti   0.50000   0.00000   0.25000   1.000
    O101    O    0.50000   0.16667   0.23553   1.000
    O102    O    0.33333   0.16667   0.15220   1.000
    O103    O    0.50000   0.00000   0.31887   1.000
    O104    O    0.50000   0.00000   0.18113   1.000
    O105    O    0.33333   0.16667   0.01447   1.000
    O106    O    0.50000   0.16667   0.09780   1.000
    O107    O    0.33333   0.00000   0.26447   1.000
    Ti108   Ti   0.33333   0.00000   0.33333   1.000
    O109    O    0.33333   0.00000   0.40220   1.000
    Ti110   Ti   0.50000   0.16667   0.50000   1.000
    Ti111   Ti   0.66667   0.16667   0.41667   1.000
    Ti112   Ti   0.50000   0.00000   0.58333   1.000
    O113    O    0.50000   0.16667   0.56887   1.000
    O114    O    0.33333   0.16667   0.48553   1.000
    O115    O    0.50000   0.00000   0.65220   1.000
    O116    O    0.50000   0.00000   0.51447   1.000
    O117    O    0.33333   0.16667   0.34780   1.000
    O118    O    0.50000   0.16667   0.43113   1.000
    O119    O    0.33333   0.00000   0.59780   1.000
    Ti120   Ti   0.33333   0.00000   0.66667   1.000
    O121    O    0.33333   0.00000   0.73553   1.000
    Ti122   Ti   0.50000   0.16667   0.83333   1.000
    Ti123   Ti   0.66667   0.16667   0.75000   1.000
    Ti124   Ti   0.50000   0.00000   0.91667   1.000
    O125    O    0.50000   0.16667   0.90220   1.000
    O126    O    0.33333   0.16667   0.81887   1.000
    O127    O    0.50000   0.00000   0.98553   1.000
    O128    O    0.50000   0.00000   0.84780   1.000
    O129    O    0.33333   0.16667   0.68113   1.000
    O130    O    0.50000   0.16667   0.76447   1.000
    O131    O    0.33333   0.00000   0.93113   1.000
    Ti132   Ti   0.33333   0.33333   0.00000   1.000
    O133    O    0.33333   0.33333   0.06887   1.000
    Ti134   Ti   0.50000   0.50000   0.16667   1.000
    Ti135   Ti   0.66667   0.50000   0.08333   1.000
    Ti136   Ti   0.50000   0.33333   0.25000   1.000
    O137    O    0.50000   0.50000   0.23553   1.000
    O138    O    0.33333   0.50000   0.15220   1.000
    O139    O    0.50000   0.33333   0.31887   1.000
    O140    O    0.50000   0.33333   0.18113   1.000
    O141    O    0.33333   0.50000   0.01447   1.000
    O142    O    0.50000   0.50000   0.09780   1.000
    O143    O    0.33333   0.33333   0.26447   1.000
    Ti144   Ti   0.33333   0.33333   0.33333   1.000
    O145    O    0.33333   0.33333   0.40220   1.000
    Ti146   Ti   0.50000   0.50000   0.50000   1.000
    Ti147   Ti   0.66667   0.50000   0.41667   1.000
    Ti148   Ti   0.50000   0.33333   0.58333   1.000
    O149    O    0.50000   0.50000   0.56887   1.000
    O150    O    0.33333   0.50000   0.48553   1.000
    O151    O    0.50000   0.33333   0.65220   1.000
    O152    O    0.50000   0.33333   0.51447   1.000
    O153    O    0.33333   0.50000   0.34780   1.000
    O154    O    0.50000   0.50000   0.43113   1.000
    O155    O    0.33333   0.33333   0.59780   1.000
    Ti156   Ti   0.33333   0.33333   0.66667   1.000
    O157    O    0.33333   0.33333   0.73553   1.000
    Ti158   Ti   0.50000   0.50000   0.83333   1.000
    Ti159   Ti   0.66667   0.50000   0.75000   1.000
    Ti160   Ti   0.50000   0.33333   0.91667   1.000
    O161    O    0.50000   0.50000   0.90220   1.000
    O162    O    0.33333   0.50000   0.81887   1.000
    O163    O    0.50000   0.33333   0.98553   1.000
    O164    O    0.50000   0.33333   0.84780   1.000
    O165    O    0.33333   0.50000   0.68113   1.000
    O166    O    0.50000   0.50000   0.76447   1.000
    O167    O    0.33333   0.33333   0.93113   1.000
    Ti168   Ti   0.33333   0.66667   0.00000   1.000
    O169    O    0.33333   0.66667   0.06887   1.000
    Ti170   Ti   0.50000   0.83333   0.16667   1.000
    Ti171   Ti   0.66667   0.83333   0.08333   1.000
    Ti172   Ti   0.50000   0.66667   0.25000   1.000
    O173    O    0.50000   0.83333   0.23553   1.000
    O174    O    0.33333   0.83333   0.15220   1.000
    O175    O    0.50000   0.66667   0.31887   1.000
    O176    O    0.50000   0.66667   0.18113   1.000
    O177    O    0.33333   0.83333   0.01447   1.000
    O178    O    0.50000   0.83333   0.09780   1.000
    O179    O    0.33333   0.66667   0.26447   1.000
    Ti180   Ti   0.33333   0.66667   0.33333   1.000
    O181    O    0.33333   0.66667   0.40220   1.000
    Ti182   Ti   0.50000   0.83333   0.50000   1.000
    Ti183   Ti   0.66667   0.83333   0.41667   1.000
    Ti184   Ti   0.50000   0.66667   0.58333   1.000
    O185    O    0.50000   0.83333   0.56887   1.000
    O186    O    0.33333   0.83333   0.48553   1.000
    O187    O    0.50000   0.66667   0.65220   1.000
    O188    O    0.50000   0.66667   0.51447   1.000
    O189    O    0.33333   0.83333   0.34780   1.000
    O190    O    0.50000   0.83333   0.43113   1.000
    O191    O    0.33333   0.66667   0.59780   1.000
    Ti192   Ti   0.33333   0.66667   0.66667   1.000
    O193    O    0.33333   0.66667   0.73553   1.000
    Ti194   Ti   0.50000   0.83333   0.83333   1.000
    Ti195   Ti   0.66667   0.83333   0.75000   1.000
    Ti196   Ti   0.50000   0.66667   0.91667   1.000
    O197    O    0.50000   0.83333   0.90220   1.000
    O198    O    0.33333   0.83333   0.81887   1.000
    O199    O    0.50000   0.66667   0.98553   1.000
    O200    O    0.50000   0.66667   0.84780   1.000
    O201    O    0.33333   0.83333   0.68113   1.000
    O202    O    0.50000   0.83333   0.76447   1.000
    O203    O    0.33333   0.66667   0.93113   1.000
    Ti204   Ti   0.66667   0.00000   0.00000   1.000
    O205    O    0.66667   0.00000   0.06887   1.000
    Ti206   Ti   0.83333   0.16667   0.16667   1.000
    Ti207   Ti   0.00000   0.16667   0.08333   1.000
    Ti208   Ti   0.83333   0.00000   0.25000   1.000
    O209    O    0.83333   0.16667   0.23553   1.000
    O210    O    0.66667   0.16667   0.15220   1.000
    O211    O    0.83333   0.00000   0.31887   1.000
    O212    O    0.83333   0.00000   0.18113   1.000
    O213    O    0.66667   0.16667   0.01447   1.000
    O214    O    0.83333   0.16667   0.09780   1.000
    O215    O    0.66667   0.00000   0.26447   1.000
    Ti216   Ti   0.66667   0.00000   0.33333   1.000
    O217    O    0.66667   0.00000   0.40220   1.000
    Ti218   Ti   0.83333   0.16667   0.50000   1.000
    Ti219   Ti   0.00000   0.16667   0.41667   1.000
    Ti220   Ti   0.83333   0.00000   0.58333   1.000
    O221    O    0.83333   0.16667   0.56887   1.000
    O222    O    0.66667   0.16667   0.48553   1.000
    O223    O    0.83333   0.00000   0.65220   1.000
    O224    O    0.83333   0.00000   0.51447   1.000
    O225    O    0.66667   0.16667   0.34780   1.000
    O226    O    0.83333   0.16667   0.43113   1.000
    O227    O    0.66667   0.00000   0.59780   1.000
    Ti228   Ti   0.66667   0.00000   0.66667   1.000
    O229    O    0.66667   0.00000   0.73553   1.000
    Ti230   Ti   0.83333   0.16667   0.83333   1.000
    Ti231   Ti   0.00000   0.16667   0.75000   1.000
    Ti232   Ti   0.83333   0.00000   0.91667   1.000
    O233    O    0.83333   0.16667   0.90220   1.000
    O234    O    0.66667   0.16667   0.81887   1.000
    O235    O    0.83333   0.00000   0.98553   1.000
    O236    O    0.83333   0.00000   0.84780   1.000
    O237    O    0.66667   0.16667   0.68113   1.000
    O238    O    0.83333   0.16667   0.76447   1.000
    O239    O    0.66667   0.00000   0.93113   1.000
    Ti240   Ti   0.66667   0.33333   0.00000   1.000
    O241    O    0.66667   0.33333   0.06887   1.000
    Ti242   Ti   0.83333   0.50000   0.16667   1.000
    Ti243   Ti   0.00000   0.50000   0.08333   1.000
    Ti244   Ti   0.83333   0.33333   0.25000   1.000
    O245    O    0.83333   0.50000   0.23553   1.000
    O246    O    0.66667   0.50000   0.15220   1.000
    O247    O    0.83333   0.33333   0.31887   1.000
    O248    O    0.83333   0.33333   0.18113   1.000
    O249    O    0.66667   0.50000   0.01447   1.000
    O250    O    0.83333   0.50000   0.09780   1.000
    O251    O    0.66667   0.33333   0.26447   1.000
    Ti252   Ti   0.66667   0.33333   0.33333   1.000
    O253    O    0.66667   0.33333   0.40220   1.000
    Ti254   Ti   0.83333   0.50000   0.50000   1.000
    Ti255   Ti   0.00000   0.50000   0.41667   1.000
    Ti256   Ti   0.83333   0.33333   0.58333   1.000
    O257    O    0.83333   0.50000   0.56887   1.000
    O258    O    0.66667   0.50000   0.48553   1.000
    O259    O    0.83333   0.33333   0.65220   1.000
    O260    O    0.83333   0.33333   0.51447   1.000
    O261    O    0.66667   0.50000   0.34780   1.000
    O262    O    0.83333   0.50000   0.43113   1.000
    O263    O    0.66667   0.33333   0.59780   1.000
    Ti264   Ti   0.66667   0.33333   0.66667   1.000
    O265    O    0.66667   0.33333   0.73553   1.000
    Ti266   Ti   0.83333   0.50000   0.83333   1.000
    Ti267   Ti   0.00000   0.50000   0.75000   1.000
    Ti268   Ti   0.83333   0.33333   0.91667   1.000
    O269    O    0.83333   0.50000   0.90220   1.000
    O270    O    0.66667   0.50000   0.81887   1.000
    O271    O    0.83333   0.33333   0.98553   1.000
    O272    O    0.83333   0.33333   0.84780   1.000
    O273    O    0.66667   0.50000   0.68113   1.000
    O274    O    0.83333   0.50000   0.76447   1.000
    O275    O    0.66667   0.33333   0.93113   1.000
    Ti276   Ti   0.66667   0.66667   0.00000   1.000
    O277    O    0.66667   0.66667   0.06887   1.000
    Ti278   Ti   0.83333   0.83333   0.16667   1.000
    Ti279   Ti   0.00000   0.83333   0.08333   1.000
    Ti280   Ti   0.83333   0.66667   0.25000   1.000
    O281    O    0.83333   0.83333   0.23553   1.000
    O282    O    0.66667   0.83333   0.15220   1.000
    O283    O    0.83333   0.66667   0.31887   1.000
    O284    O    0.83333   0.66667   0.18113   1.000
    O285    O    0.66667   0.83333   0.01447   1.000
    O286    O    0.83333   0.83333   0.09780   1.000
    O287    O    0.66667   0.66667   0.26447   1.000
    Ti288   Ti   0.66667   0.66667   0.33333   1.000
    O289    O    0.66667   0.66667   0.40220   1.000
    Ti290   Ti   0.83333   0.83333   0.50000   1.000
    Ti291   Ti   0.00000   0.83333   0.41667   1.000
    Ti292   Ti   0.83333   0.66667   0.58333   1.000
    O293    O    0.83333   0.83333   0.56887   1.000
    O294    O    0.66667   0.83333   0.48553   1.000
    O295    O    0.83333   0.66667   0.65220   1.000
    O296    O    0.83333   0.66667   0.51447   1.000
    O297    O    0.66667   0.83333   0.34780   1.000
    O298    O    0.83333   0.83333   0.43113   1.000
    O299    O    0.66667   0.66667   0.59780   1.000
    Ti300   Ti   0.66667   0.66667   0.66667   1.000
    O301    O    0.66667   0.66667   0.73553   1.000
    Ti302   Ti   0.83333   0.83333   0.83333   1.000
    Ti303   Ti   0.00000   0.83333   0.75000   1.000
    Ti304   Ti   0.83333   0.66667   0.91667   1.000
    O305    O    0.83333   0.83333   0.90220   1.000
    O306    O    0.66667   0.83333   0.81887   1.000
    O307    O    0.83333   0.66667   0.98553   1.000
    O308    O    0.83333   0.66667   0.84780   1.000
    O309    O    0.66667   0.83333   0.68113   1.000
    O310    O    0.83333   0.83333   0.76447   1.000
    O311    O    0.66667   0.66667   0.93113   1.000
